raw_data/Transformers.dss
new XfmrCode.d650e801-72b2-40ee-bb56-3e8d5a9c0f3f Phases=3 Windings=2 Conns=(wye, wye) kVs=[12.47, 0.48] kVAs=[75.0, 75.0] Taps=[1.0, 1.0] %Rs=[0.87204, 0.87204] %LoadLoss=1.74408 %NoLoadLoss=0.6 X12=3.24 X23=3.24 Wdg=1 MaxTap=1.1 MinTap=0.9 NumTaps=32 Wdg=2 MaxTap=1.1 MinTap=0.9 NumTaps=32
new Transformer.eff844a0-dd37-4e77-a494-164e1dce4112 Phases=3 Windings=2 Buses=(5ff9a8dc-e808-48b4-9a51-b4ef0c8aae7d_ht.1.2.3, 5ff9a8dc-e808-48b4-9a51-b4ef0c8aae7d.1.2.3) XfmrCode=d650e801-72b2-40ee-bb56-3e8d5a9c0f3f
new Transformer.29b31b94-3157-4ac7-8e8b-f30a48a0f140 Phases=3 Windings=2 Buses=(ef7e1cf1-f33b-4256-8a55-ad94fbc7a080_ht.1.2.3, ef7e1cf1-f33b-4256-8a55-ad94fbc7a080.1.2.3) XfmrCode=d650e801-72b2-40ee-bb56-3e8d5a9c0f3f
new Transformer.6d43ba94-0951-4e88-aeb0-f8cfc4e65255 Phases=3 Windings=2 Buses=(c06e8b04-406c-4505-9a7d-caa26d521809_ht.1.2.3, c06e8b04-406c-4505-9a7d-caa26d521809.1.2.3) XfmrCode=d650e801-72b2-40ee-bb56-3e8d5a9c0f3f
new Transformer.2ff879d8-6a3d-477c-a389-47beb6a83f3a Phases=3 Windings=2 Buses=(18df96d8-a15c-4473-95ae-8731c654a42a_ht.1.2.3, 18df96d8-a15c-4473-95ae-8731c654a42a.1.2.3) XfmrCode=d650e801-72b2-40ee-bb56-3e8d5a9c0f3f
new Transformer.a2993d7c-9584-4aab-907c-a22bda4f4bac Phases=3 Windings=2 Buses=(8d61ce66-3ce3-48f6-8819-7aacd2c1c768_ht.1.2.3, 8d61ce66-3ce3-48f6-8819-7aacd2c1c768.1.2.3) XfmrCode=d650e801-72b2-40ee-bb56-3e8d5a9c0f3f
new Transformer.1e84f720-dae4-4281-8532-c482fbcecdd6 Phases=3 Windings=2 Buses=(19d1eb19-8c54-4ed6-96d5-f236737eb4a8_ht.1.2.3, 19d1eb19-8c54-4ed6-96d5-f236737eb4a8.1.2.3) XfmrCode=d650e801-72b2-40ee-bb56-3e8d5a9c0f3f
new Transformer.4db7c295-2ef7-4e9f-a1f9-0c121742f152 Phases=3 Windings=2 Buses=(fde6c6f0-66f1-43ee-94bb-65c3f330bd74_ht.1.2.3, fde6c6f0-66f1-43ee-94bb-65c3f330bd74.1.2.3) XfmrCode=d650e801-72b2-40ee-bb56-3e8d5a9c0f3f
new Transformer.de6ff399-0752-4e51-a533-a37bbe510eca Phases=3 Windings=2 Buses=(1e49a5a7-cec4-415a-8ea3-33f157d3592a_ht.1.2.3, 1e49a5a7-cec4-415a-8ea3-33f157d3592a.1.2.3) XfmrCode=d650e801-72b2-40ee-bb56-3e8d5a9c0f3f
new XfmrCode.1c71b3eb-2df4-430f-9f95-f87f2c1adba4 Phases=3 Windings=2 Conns=(wye, wye) kVs=[12.47, 0.48] kVAs=[100.0, 100.0] Taps=[1.0, 1.0] %Rs=[0.805475, 0.805475] %LoadLoss=1.61095 %NoLoadLoss=0.62 X12=3.29 X23=3.29 Wdg=1 MaxTap=1.1 MinTap=0.9 NumTaps=32 Wdg=2 MaxTap=1.1 MinTap=0.9 NumTaps=32
new Transformer.df49bc32-fa1a-4fdf-83e6-ef2560440456 Phases=3 Windings=2 Buses=(55b8b78c-31cd-4574-90aa-bf37208faea1_ht.1.2.3, 55b8b78c-31cd-4574-90aa-bf37208faea1.1.2.3) XfmrCode=1c71b3eb-2df4-430f-9f95-f87f2c1adba4
new Transformer.48715e2f-afae-4754-bc9e-e2531e883d45 Phases=3 Windings=2 Buses=(79b5b874-4748-484a-9185-e5d5b14abc7d_ht.1.2.3, 79b5b874-4748-484a-9185-e5d5b14abc7d.1.2.3) XfmrCode=1c71b3eb-2df4-430f-9f95-f87f2c1adba4
new Transformer.8885a901-4236-4205-96fc-38c09358a0c2 Phases=3 Windings=2 Buses=(dcde0bfe-3a3d-4ff8-8a75-7cc11b4d34a1_ht.1.2.3, dcde0bfe-3a3d-4ff8-8a75-7cc11b4d34a1.1.2.3) XfmrCode=d650e801-72b2-40ee-bb56-3e8d5a9c0f3f
new Transformer.a010dde2-c171-4bd1-8262-3a962decf2af Phases=3 Windings=2 Buses=(ff4e789f-8cc0-412d-801f-775a88fd5d87_ht.1.2.3, ff4e789f-8cc0-412d-801f-775a88fd5d87.1.2.3) XfmrCode=d650e801-72b2-40ee-bb56-3e8d5a9c0f3f
new Transformer.ef3a481a-8427-4347-b88a-c5fcc43cc021 Phases=3 Windings=2 Buses=(4cb1e7c3-c716-481d-a9cc-7b522f1ad926_ht.1.2.3, 4cb1e7c3-c716-481d-a9cc-7b522f1ad926.1.2.3) XfmrCode=d650e801-72b2-40ee-bb56-3e8d5a9c0f3f
new Transformer.206e2664-f4eb-4c9a-b074-beeb1b2f5ca3 Phases=3 Windings=2 Buses=(3d69988e-d438-41d1-8509-a035e81e2f4e_ht.1.2.3, 3d69988e-d438-41d1-8509-a035e81e2f4e.1.2.3) XfmrCode=d650e801-72b2-40ee-bb56-3e8d5a9c0f3f
